
 ===================================================
  XFOIL Version 6.99
  Copyright (C) 2000   Mark Drela, Harold Youngren

  This software comes with ABSOLUTELY NO WARRANTY,
    subject to the GNU General Public License.

  Caveat computor
 ===================================================

 File  xfoil.def  not found

   QUIT    Exit program

  .OPER    Direct operating point(s)
  .MDES    Complex mapping design routine
  .QDES    Surface speed design routine
  .GDES    Geometry design routine

   SAVE f  Write airfoil to labeled coordinate file
   PSAV f  Write airfoil to plain coordinate file
   ISAV f  Write airfoil to ISES coordinate file
   MSAV f  Write airfoil to MSES coordinate file
   REVE    Reverse written-airfoil node ordering

   LOAD f  Read buffer airfoil from coordinate file
   NACA i  Set NACA 4,5-digit airfoil and buffer airfoil
   INTE    Set buffer airfoil by interpolating two airfoils
   NORM    Buffer airfoil normalization toggle
   XYCM rr Change CM reference location, currently  0.25000 0.00000

   BEND    Display structural properties of current airfoil

   PCOP    Set current-airfoil panel nodes directly from buffer airfoil points
   PANE    Set current-airfoil panel nodes ( 160 ) based on curvature
  .PPAR    Show/change paneling

  .PLOP    Plotting options

   WDEF f  Write  current-settings file
   RDEF f  Reread current-settings file
   NAME s  Specify new airfoil name
   NINC    Increment name version number

   Z       Zoom    | (available in all menus)
   U       Unzoom  | 

 XFOIL   c>  
 Plain airfoil file

Enter airfoil name   s>  
 Number of input coordinate points: 202
 Counterclockwise ordering
 Max thickness =     0.109237  at x =   0.380
 Max camber    =     0.000025  at x =   0.010

  LE  x,y  =  -0.00057  -0.00000  |   Chord =   1.00057
  TE  x,y  =   1.00000   0.00000  |

 Current airfoil nodes set from buffer airfoil nodes ( 202 )

 WARNING: Poor input coordinate distribution
          Excessive panel angle   42.5  at i = 102
          Repaneling with PANE and/or PPAR suggested
           (doing GDES,CADD before repaneling _may_
            improve excessively coarse LE spacing

 XFOIL   c>  
 XFOIL   c>  
 XFOIL   c>  
    Present paneling parameters...
  N  i   Number of panel nodes       160
  P  r   Panel bunching parameter    1.000
  T  r   TE/LE panel density ratio   0.150
  R  r   Refined area/LE  panel density ratio   0.200
  XT rr  Top    side refined area x/c limits    1.000 1.000
  XB rr  Bottom side refined area x/c limits    1.000 1.000
  Z oom
  U nzoom

Change what ? (<cr> if nothing else)   c>  
Enter number of panel nodes   i>  
Change what ? (<cr> if nothing else)   c>  
 Blunt trailing edge.  Gap =  0.00402

 Maximum panel corner angle =  3.407   at  i,x,y  = 206  -0.0000  -0.0037

    Present paneling parameters...
  N  i   Number of panel nodes       400
  P  r   Panel bunching parameter    1.000
  T  r   TE/LE panel density ratio   0.150
  R  r   Refined area/LE  panel density ratio   0.200
  XT rr  Top    side refined area x/c limits    1.000 1.000
  XB rr  Bottom side refined area x/c limits    1.000 1.000
  Z oom
  U nzoom

Change what ? (<cr> if nothing else)   c>  
 XFOIL   c>  
 XFOIL   c>  
 XFOIL   c>  
.OPERi   c>  
.OPERi   c>  
 Sonic Cp =    -16.31      Sonic Q/Qinf =     4.583


.OPERi   c>  
 M  =    0.2000
 Re =   1000000

.OPERv   c>  
 Polar  1 newly created for accumulation
 Airfoil archived with polar: test_x57_wing_airfoil                           

Enter  polar save filename  OR  <return> for no file   s>  
 Polar save file will NOT be written

Enter  polar dump filename  OR  <return> for no file   s>  
 Polar dump file will NOT be written

 Polar accumulation enabled

.OPERva   c>   Calculating unit vorticity distributions ...
 Calculating wake trajectory ...
 Array size (IWX) too small.  Last wake point index reduced.
 Calculating source influence matrix ...

 Solving BL system ...

 Initializing BL ...
    side            1  ...
 MRCHUE: Inverse mode at 141     Hk =   3.863
 MRCHUE: Inverse mode at 142     Hk =   4.190
 MRCHUE: Inverse mode at 143     Hk =   4.515
 MRCHUE: Inverse mode at 144     Hk =   3.951
 MRCHUE: Inverse mode at 145     Hk =   2.500
    side            2  ...
 MRCHUE: Inverse mode at 134     Hk =   3.893
 MRCHUE: Inverse mode at 135     Hk =   4.246
 MRCHUE: Inverse mode at 136     Hk =   4.597
 MRCHUE: Inverse mode at 137     Hk =   4.945
 MRCHUE: Inverse mode at 138     Hk =   5.292
 MRCHUE: Inverse mode at 139     Hk =   5.638
 MRCHUE: Inverse mode at 140     Hk =   5.983
 MRCHUE: Inverse mode at 141     Hk =   6.326
 MRCHUE: Inverse mode at 142     Hk =   6.669
 MRCHUE: Inverse mode at 143     Hk =   7.012
 MRCHUE: Inverse mode at 144     Hk =   7.355
 MRCHUE: Inverse mode at 145     Hk =   7.698
 MRCHUE: Inverse mode at 146     Hk =   8.041
 MRCHUE: Inverse mode at 147     Hk =   8.385
 MRCHUE: Inverse mode at 148     Hk =   8.728
 MRCHUE: Inverse mode at 149     Hk =   9.072
 MRCHUE: Inverse mode at 150     Hk =   9.416
 MRCHUE: Inverse mode at 151     Hk =   7.921
 MRCHUE: Inverse mode at 152     Hk =   6.718
 MRCHUE: Inverse mode at 153     Hk =   5.807
 MRCHUE: Inverse mode at 154     Hk =   5.072
 MRCHUE: Inverse mode at 155     Hk =   4.455
 MRCHUE: Inverse mode at 156     Hk =   3.923
 MRCHUE: Inverse mode at 157     Hk =   3.459

 Side 1  free  transition at x/c =  0.6148  144
 Side 2  free  transition at x/c =  0.7446  151

   1   rms: 0.1170E+00   max: -.9265E+00   T at  151  2   RLX: 0.540
       a =  2.000      CL =  0.2446
      Cm = -0.0022     CD =  0.00625   =>   CDf =  0.00448    CDp =  0.00178

 Side 1  free  transition at x/c =  0.6278  146
 Side 2  free  transition at x/c =  0.7524  152

   2   rms: 0.9429E-01   max: -.1235E+01   C at  146  1   RLX: 0.405
       a =  2.000      CL =  0.2452
      Cm = -0.0026     CD =  0.00622   =>   CDf =  0.00428    CDp =  0.00193

 Side 1  free  transition at x/c =  0.6305  147
 Side 2  free  transition at x/c =  0.7597  153

   3   rms: 0.5277E-01   max: -.7407E+00   C at  147  1   RLX: 0.675
       a =  2.000      CL =  0.2431
      Cm = -0.0020     CD =  0.00581   =>   CDf =  0.00432    CDp =  0.00149

 Side 1  free  transition at x/c =  0.6377  148
 Side 2  free  transition at x/c =  0.7656  154

   4   rms: 0.1807E-01   max: -.2897E+00   C at  148  1
       a =  2.000      CL =  0.2419
      Cm = -0.0018     CD =  0.00576   =>   CDf =  0.00423    CDp =  0.00152

 Side 1  free  transition at x/c =  0.6439  149
 Side 2  free  transition at x/c =  0.7676  154

   5   rms: 0.2441E-02   max: -.2913E-01   D at  155  2
       a =  2.000      CL =  0.2419
      Cm = -0.0018     CD =  0.00578   =>   CDf =  0.00418    CDp =  0.00160

 Side 1  free  transition at x/c =  0.6442  149
 Side 2  free  transition at x/c =  0.7678  154

   6   rms: 0.4676E-04   max: 0.8585E-03   D at  155  2
       a =  2.000      CL =  0.2419
      Cm = -0.0018     CD =  0.00578   =>   CDf =  0.00417    CDp =  0.00160
 plradd ia,ip,cpol            1         207  2.10557207E-02

 Point added to stored polar  1
 Save file unspecified or not available
 Dump file unspecified or not available

.OPERva   c>  
.OPERva   c>  
.OPERva   c>  
        airfoil                    Re           Mach       Ncrit  XtripT  XtripB     file
       ------------------------  ------------  ----------  -----  ------  ------    -------------------
 >  1  test_x57_wing_airfoil     1.000e6       0.200        9.00   1.000   1.000    

Enter polar output filename   s>  
.OPERva   c>  
 ==============================================================
 Polar  1
  
       XFOIL         Version 6.99
  
 Calculated polar for: test_x57_wing_airfoil                           
  
 1 1 Reynolds number fixed          Mach number fixed         
  
 xtrf =   1.000 (top)        1.000 (bottom)  
 Mach =   0.200     Re =     1.000 e 6     Ncrit =   9.000
  
   alpha    CL        CD       CDp       CM     Top_Xtr  Bot_Xtr
  ------ -------- --------- --------- -------- -------- --------
   2.000   0.2419   0.00578   0.00160  -0.0018   0.6442   0.7678

.OPERva   c>  
 XFOIL   c>  